************************************************************************
*Heading
3D multi-element inhomogeneous tension
************************************************************************
**
** Note: Abaqus has no built-in units. It is the
** user's responsibility to use compatible units.
**
**       Units used in this problem, SI:
**                  Length               --- meters - m
**                  Time                 --- seconds - s
**                  Mass                 --- kilograms - kg
**                  Force                --- Newton - N
**                  Stress               --- Pascal - Pa = N/(m)^2 
**                  Energy               --- Joule - J = N*m
**                  Density              --- kg/m^3
**
** Xiuqi Li, Dec 2020
**
************************************************************************
*Parameter
**  Total time (s)
total_time = 50.0
**
****************************************************************
** 			Model definition
****************************************************************
**
** Nodes
**
*Node, nset=nall
1,0.02540000,0.01850000,-0.02336800
2,0.02540000,0.01850000,-0.02235200
3,0.02540000,0.01850000,-0.02032000
4,0.02540000,0.01850000,-0.01930400
5,0.02540000,0.01850000,-0.01727200
6,0.02540000,0.01850000,-0.01625600
7,0.02540000,0.01850000,-0.01422400
8,0.02540000,0.01850000,-0.01219200
9,0.02540000,0.01850000,-0.01117600
10,0.02540000,0.01850000,-0.00914400
11,0.02540000,0.01850000,-0.00812800
12,0.02540000,0.01850000,-0.00609600
13,0.02540000,0.01850000,-0.00508000
14,0.02540000,0.01850000,-0.00304800
15,0.02540000,0.01850000,-0.00203200
16,0.02540000,0.01850000,-0.02540000
17,0.02540000,0.01850000,0.00000000
18,0.02606637,0.01850000,-0.00003506
19,0.02672538,0.01850000,-0.00013986
20,0.02736975,0.01850000,-0.00031323
** ... 40100 like lines cut
**
** Elements
**
*Element, type=C3D8R, elset=elall
    1,   657,   543,    16,   164,  2663,  2549,  2022,  2170
    2,  1169,   657,   656,   307,  3175,  2663,  2662,  2313
    3,   163,   162,   653,   656,  2169,  2168,  2659,  2662
    4,   164,   163,   656,   657,  2170,  2169,  2662,  2663
    5,     1,  1169,  1641,     2,  2007,  3175,  3647,  2008
    6,   307,   973,  1815,  1169,  2313,  2979,  3821,  3175
    7,  1168,  1764,   784,   321,  3174,  3770,  2790,  2327
    8,   159,   160,  1262,   321,  2165,  2166,  3268,  2327
    9,  1262,   320,  1168,   321,  3268,  2326,  3174,  2327
   10,   784,   161,   159,   321,  2790,  2167,  2165,  2327
   11,   656,   653,   973,   307,  2662,  2659,  2979,  2313
   12,  1627,   544,     2,  1641,  3633,  2550,  2008,  3647
   13,  1606,  1627,  1669,   305,  3612,  3633,  3675,  2311
   14,  1904,  1512,  1462,  1579,  3910,  3518,  3468,  3585
   15,  1404,  1462,  1335,  1765,  3410,  3468,  3341,  3771
   16,   962,  1269,  1008,  1026,  2968,  3275,  3014,  3032
   17,  1008,   333,   157,   156,  3014,  2339,  2163,  2162
   18,   333,  1403,   158,   157,  2339,  3409,  2164,  2163
   19,   160,   158,  1403,  1262,  2166,  2164,  3409,  3268
   20,  1512,   320,  1335,  1462,  3518,  2326,  3341,  3468
** ... 35035 like lines cut
**
** Sets
**
*Nset, nset=Set-ref
    1, 
*Nset, nset=Set-bot
    83,    84,    85,    86,    87,    88,    89,    90,    91,    92,    93,    94,    95,    96,    97,    98
    99,   565,   566,   567,   568,   569,   570,   571,   572,   573,  2089,  2090,  2091,  2092,  2093,  2094
  2095,  2096,  2097,  2098,  2099,  2100,  2101,  2102,  2103,  2104,  2105,  2571,  2572,  2573,  2574,  2575
  2576,  2577,  2578,  2579,  4095,  4096,  4097,  4098,  4099,  4100,  4101,  4102,  4103,  4104,  4105,  4106
  4107,  4108,  4109,  4110,  4111,  4577,  4578,  4579,  4580,  4581,  4582,  4583,  4584,  4585,  6101,  6102
  6103,  6104,  6105,  6106,  6107,  6108,  6109,  6110,  6111,  6112,  6113,  6114,  6115,  6116,  6117,  6583
  6584,  6585,  6586,  6587,  6588,  6589,  6590,  6591,  8107,  8108,  8109,  8110,  8111,  8112,  8113,  8114
  8115,  8116,  8117,  8118,  8119,  8120,  8121,  8122,  8123,  8589,  8590,  8591,  8592,  8593,  8594,  8595
  8596,  8597, 10113, 10114, 10115, 10116, 10117, 10118, 10119, 10120, 10121, 10122, 10123, 10124, 10125, 10126
 10127, 10128, 10129, 10595, 10596, 10597, 10598, 10599, 10600, 10601, 10602, 10603, 12119, 12120, 12121, 12122
 12123, 12124, 12125, 12126, 12127, 12128, 12129, 12130, 12131, 12132, 12133, 12134, 12135, 12601, 12602, 12603
 12604, 12605, 12606, 12607, 12608, 12609, 14125, 14126, 14127, 14128, 14129, 14130, 14131, 14132, 14133, 14134
 14135, 14136, 14137, 14138, 14139, 14140, 14141, 14607, 14608, 14609, 14610, 14611, 14612, 14613, 14614, 14615
 16131, 16132, 16133, 16134, 16135, 16136, 16137, 16138, 16139, 16140, 16141, 16142, 16143, 16144, 16145, 16146
 16147, 16613, 16614, 16615, 16616, 16617, 16618, 16619, 16620, 16621, 18137, 18138, 18139, 18140, 18141, 18142
 18143, 18144, 18145, 18146, 18147, 18148, 18149, 18150, 18151, 18152, 18153, 18619, 18620, 18621, 18622, 18623
 18624, 18625, 18626, 18627, 20143, 20144, 20145, 20146, 20147, 20148, 20149, 20150, 20151, 20152, 20153, 20154
 20155, 20156, 20157, 20158, 20159, 20625, 20626, 20627, 20628, 20629, 20630, 20631, 20632, 20633, 22149, 22150
 22151, 22152, 22153, 22154, 22155, 22156, 22157, 22158, 22159, 22160, 22161, 22162, 22163, 22164, 22165, 22631
 22632, 22633, 22634, 22635, 22636, 22637, 22638, 22639, 24155, 24156, 24157, 24158, 24159, 24160, 24161, 24162
** ... 13 like lines cut
*Nset, nset=Set-top
     1,     2,     3,     4,     5,     6,     7,     8,     9,    10,    11,    12,    13,    14,    15,    16
    17,   543,   544,   545,   546,   547,   548,   549,   550,   551,  2007,  2008,  2009,  2010,  2011,  2012
  2013,  2014,  2015,  2016,  2017,  2018,  2019,  2020,  2021,  2022,  2023,  2549,  2550,  2551,  2552,  2553
  2554,  2555,  2556,  2557,  4013,  4014,  4015,  4016,  4017,  4018,  4019,  4020,  4021,  4022,  4023,  4024
  4025,  4026,  4027,  4028,  4029,  4555,  4556,  4557,  4558,  4559,  4560,  4561,  4562,  4563,  6019,  6020
  6021,  6022,  6023,  6024,  6025,  6026,  6027,  6028,  6029,  6030,  6031,  6032,  6033,  6034,  6035,  6561
  6562,  6563,  6564,  6565,  6566,  6567,  6568,  6569,  8025,  8026,  8027,  8028,  8029,  8030,  8031,  8032
  8033,  8034,  8035,  8036,  8037,  8038,  8039,  8040,  8041,  8567,  8568,  8569,  8570,  8571,  8572,  8573
  8574,  8575, 10031, 10032, 10033, 10034, 10035, 10036, 10037, 10038, 10039, 10040, 10041, 10042, 10043, 10044
 10045, 10046, 10047, 10573, 10574, 10575, 10576, 10577, 10578, 10579, 10580, 10581, 12037, 12038, 12039, 12040
 12041, 12042, 12043, 12044, 12045, 12046, 12047, 12048, 12049, 12050, 12051, 12052, 12053, 12579, 12580, 12581
 12582, 12583, 12584, 12585, 12586, 12587, 14043, 14044, 14045, 14046, 14047, 14048, 14049, 14050, 14051, 14052
 14053, 14054, 14055, 14056, 14057, 14058, 14059, 14585, 14586, 14587, 14588, 14589, 14590, 14591, 14592, 14593
 16049, 16050, 16051, 16052, 16053, 16054, 16055, 16056, 16057, 16058, 16059, 16060, 16061, 16062, 16063, 16064
 16065, 16591, 16592, 16593, 16594, 16595, 16596, 16597, 16598, 16599, 18055, 18056, 18057, 18058, 18059, 18060
 18061, 18062, 18063, 18064, 18065, 18066, 18067, 18068, 18069, 18070, 18071, 18597, 18598, 18599, 18600, 18601
 18602, 18603, 18604, 18605, 20061, 20062, 20063, 20064, 20065, 20066, 20067, 20068, 20069, 20070, 20071, 20072
 20073, 20074, 20075, 20076, 20077, 20603, 20604, 20605, 20606, 20607, 20608, 20609, 20610, 20611, 22067, 22068
 22069, 22070, 22071, 22072, 22073, 22074, 22075, 22076, 22077, 22078, 22079, 22080, 22081, 22082, 22083, 22609
 22610, 22611, 22612, 22613, 22614, 22615, 22616, 22617, 24073, 24074, 24075, 24076, 24077, 24078, 24079, 24080
** ... 13 like lines cut
************************************************************************
**                     Material definition
************************************************************************
*Solid Section, elset=elall, material=mat
************************************************************************
******************
****************** User-defined material
******************
************************************************************************
*Material,name=mat
*User material,constants=39
500.0e3,1000.0e3,0.16,1.2,-0.1,0.12,7.0,0.64,
0.35,3.0,4.0,20.0,0.21,2.0,4,1,
580.0e3,0.18,3500.0,0.0,1.0,2,90.0e3,50.0,
0.0,0.0,1.0,2,80.0e3,2.0,0.0,2.5,
2.1,2,50.0e3,0.1,0.0,0.0,1.0
**
*Depvar
63
*Density
190.0
************************************************************************
**                        Amplitude
************************************************************************
*Amplitude, name=Profile
*Include, input=ten_0_1Hz_input.txt 
************************************************************************
**                      Step definition
************************************************************************
*Step, name=Load, nlgeom=yes
*Dynamic, Explicit
,<total_time>
*Fixed Mass Scaling, factor=1e5
** 
** Boundary conditions
** 
*Boundary
Set-bot, 1, 3
Set-top, 2, 3
*BOUNDARY,amplitude=Profile
Set-top, 1, 1, 1.0
****************
****************  Outputs
****************
****************  Field output
****************
*Output, field, number interval=100
*Node Output
u,rf
*Element Output
s,le,sdv
****************
****************  History output
****************
*Output, history, frequency=100
*Node Output, nset=Set-top
rf1
*Node Output, nset=Set-ref
u1
*Energy Output
allie, allke
*End Step
************************************************************************
