************************************************************************
*Heading
2D axisymmetric spherical indentation
************************************************************************
**
** Note: Abaqus has no built-in units. It is the
** user's responsibility to use compatible units.
**
**       Units used in this problem, SI:
**                  Length               --- meters - m
**                  Time                 --- seconds - s
**                  Mass                 --- kilograms - kg
**                  Force                --- Newton - N
**                  Stress               --- Pascal - Pa = N/(m)^2 
**                  Energy               --- Joule - J = N*m
**                  Density              --- kg/m^3
**
** Xiuqi Li, Dec 2020
**
************************************************************************
*Parameter
**  Total time (s)
total_time = 164.2
**
************************************************************************
** Model definition
************************************************************************
**
** Rigid indenter
**
*Node, nset=RefPt
 999999,           0.,           0.,           0.
*Surface, type=SEGMENTS, name=Indenter
START,      0.00397,      0.00397
 CIRCL,           0.,           0.,           0.,      0.00397
*Rigid Body, ref node=RefPt, analytical surface=Indenter
**
** Nodes
**
*Node, nset=nall
      1, 0.0370000005,           0.
      2, 0.0366003998,           0.
      3, 0.0362042561,           0.
      4, 0.0358115435,           0.
      5,  0.035422232,           0.
      6, 0.0350362882,           0.
      7,  0.034653686,           0.
      8, 0.0342743956,           0.
      9, 0.0338983871,           0.
     10, 0.0335256383,           0.
     11, 0.0331561118,           0.
     12, 0.0327897854,           0.
     13, 0.0324266292,           0.
     14, 0.0320666209,           0.
     15, 0.0317097232,           0.
     16, 0.0313559175,           0.
     17, 0.0310051758,           0.
     18, 0.0306574702,           0.
     19, 0.0303127728,           0.
     20, 0.0299710613,           0.
** ... 13257 like lines cut
**
** Elements
**
*Element, type=CAX4R, elset = elall
    1,     1,     2,   189,   188
    2,     2,     3,   190,   189
    3,     3,     4,   191,   190
    4,     4,     5,   192,   191
    5,     5,     6,   193,   192
    6,     6,     7,   194,   193
    7,     7,     8,   195,   194
    8,     8,     9,   196,   195
    9,     9,    10,   197,   196
   10,    10,    11,   198,   197
   11,    11,    12,   199,   198
   12,    12,    13,   200,   199
   13,    13,    14,   201,   200
   14,    14,    15,   202,   201
   15,    15,    16,   203,   202
   16,    16,    17,   204,   203
   17,    17,    18,   205,   204
   18,    18,    19,   206,   205
   19,    19,    20,   207,   206
   20,    20,    21,   208,   207
** ... 13000 like lines cut
**
** Sets
**
*Nset, nset=left, generate
   187,  13277,    187
*Nset, nset=bottom, generate
 13091,  13277,      1
**
** Surfaces
**
*Elset, elset=top, generate
   1,  186,    1
*Surface, type=ELEMENT, name=topSurf
top, S1
************************************************************************
**                     Material definition
************************************************************************
*Solid section, elset=elall, material=mat
************************************************************************
******************
****************** User-defined material
******************
************************************************************************
*Material,name=mat
*User material,constants=39
500.0e3,1000.0e3,0.16,1.2,-0.1,0.12,7.0,0.64,
0.35,3.0,4.0,20.0,0.21,2.0,4,1,
580.0e3,0.18,3500.0,0.0,1.0,2,90.0e3,50.0,
0.0,0.0,1.0,2,80.0e3,2.0,0.0,2.5,
2.1,2,50.0e3,0.1,0.0,0.0,1.0
**
*Depvar
63
*Density
190.0
************************************************************************
**                   Interaction Properties
************************************************************************
*Surface Interaction, name=IntProp-1
*Friction,rough
*Surface Behavior, pressure-overclosure=HARD
************************************************************************
**                        Amplitude
************************************************************************
*Amplitude, name=Profile
*Include, input=si_0_03Hz_input.txt
************************************************************************
**                      Step definition
************************************************************************
*Step, name=Load, nlgeom=yes
*Dynamic, Explicit
, <total_time>
*Fixed Mass Scaling, factor=1e6
** 
** Boundary conditions
** 
*Boundary
left, 1, 1
bottom, 1, 2
RefPt, 1, 1
RefPt, 6, 6
*Boundary, amplitude=Profile
RefPt, 2, 2, -1.0
** 
** Interactions
** 
*Contact Pair, interaction=IntProp-1, mechanical constraint=kinematic, cpset=Int-1
Indenter, topSurf
****************
****************  Outputs
****************
****************  Field output
****************
*Output, field, number interval=100
*Node Output
u,rf
*Element Output
s,le,sdv
****************
****************  History output
****************
*Output, history, frequency=100
*Node Output, nset=RefPt
rf2, u2
*Element Output, elset=elall
vol
*Energy Output
allie, allke
*End Step
************************************************************************
